Mackenzie_2022/OpenDSSCodes/ckt5/ckt5_Losses.Txt

LOSSES REPORT

Power Delivery Element Loss Report

Element                  kW Losses    % of Power   kvar Losses

"Line.MDV201_CONNECTOR"                       0.00039,      0.0     0.00386956
"Line.MDV201_HN_1_275_A94744"                 0.00007,      0.0     -0.0112473
"Line.MDV201_HN_2_466_C62235"                 0.01150,     0.01     0.00585521
"Line.MDV201_DA_8_780_A1144234"               0.00077,      0.0     -0.0162255
"Line.MDV201_1160486ELB-1_SW"                 0.00005,      0.0     2.99736E-005
"Line.MDV201_1160486ELB"                      0.00000,      0.0     7.88435E-009
"Line.MDV201_HN_2P009_B1160473"               0.02475,     0.01     -0.0723268
"Line.MDV201_HN_2_088_ABC8164"                0.68811,     0.04     1.03571
"Line.MDV201_HN_2_319_B39610"                 0.00005,      0.0     -0.00270505
"Line.MDV201_HN_2_417_A842"                   0.00795,     0.01     -0.00142053
"Line.MDV201_HN_2_941_B39760"                 0.00198,     0.01     -0.00695578
"Line.MDV201_1160480ELB-1_SW"                 0.00041,      0.0     0.000389747
"Line.MDV201_1160480ELB"                      0.00000,      0.0     6.27158E-008
"Line.C_1P034_SW"                             0.00012,      0.0     9.71218E-005
"Line.MDV201_8088ELB"                         0.00000,      0.0     1.82315E-008
"Line.MDV201_HN_2_499_ABC834"                 2.14712,     0.09     1.73333
"Line.MDV201_1160478ELB-1_SW"                 0.00022,      0.0     0.000202357
"Line.MDV201_1160478ELB"                      0.00000,      0.0     3.41572E-008
"Line.MDV201_HN_2_217_ABC8160"                0.24438,     0.01     0.371344
"Line.MDV201_HN_2_942_C89791"                 0.01401,     0.01     0.0027223
"Line.MDV201_99422FUSE"                       0.00001,      0.0     5.56582E-005
"Line.MDV201_HN_2_140_ABC8124"                0.02519,     0.01     -0.0111157
"Line.MDV201_HN_2_818_ABC63707"               0.21096,     0.02     0.301493
"Line.MDV201_DA_8_731_C74450"                 0.00027,      0.0     -0.00654429
"Line.MDV201_100494FUSE"                      0.00000,      0.0     -0.000362027
"Line.MDV201_107110FUSE"                      0.00002,      0.0     0.000804436
"Line.MDV201_HN_2_477_C8121"                  0.00427,     0.01     -0.00425175
"Line.MDV201_HN_2_876_C63671"                 0.00791,     0.01     0.00129393
"Line.MDV201_HN_2_671_C89781"                 0.05956,     0.02     0.0555564
"Line.MDV201_DA_8_930_A39751"                 0.00283,     0.01     -0.00713232
"Line.MDV201_HN_2_394_ABC63658"               0.86517,     0.02     2.96085
"Line.MDV201_DA_8_687_B74448"                 0.03092,     0.02     0.0161276
"Line.MDV201_1012643FUSE"                     0.00000,      0.0     -0.000376652
"Line.MDV201_HN_1_238_A39569"                 0.00035,      0.0     -0.00908081
"Line.MDV201_14869FUSE"                       0.00001,      0.0     -0.000109304
"Line.MDV201_HN_1_156_C89790"                 0.00022,      0.0     -0.0135834
"Line.MDV201_HN_2_318_C28272"                 0.00017,      0.0     -0.0103387
"Line.MDV201_C_1_140_ABC69477"                0.00000,      0.0     -0.0734545
"Line.MDV201_HN_2_948_C8176"                  0.00032,      0.0     -0.00660904
"Line.MDV201_1144230FUSE"                     0.00000,      0.0     -0.000321659
"Line.MDV201_HN_2_105_ABC39582"               0.34479,     0.04     0.243285
"Line.MDV201_DA_8_691_B46386"                 0.01083,     0.01     0.00173063
"Line.MDV201_HN_2_457_C62244"                 0.00932,     0.01     0.00531146
"Line.C_1P038_SW"                             0.00047,      0.0     0.000445904
"Line.MDV201_8075ELB"                         0.00000,      0.0     7.13885E-008
"Line.C_1P032_SW"                             0.00001,      0.0     -1.27631E-005
"Line.MDV201_107997ELB"                       0.00000,      0.0     1.48478E-009
"Line.MDV201_HN_2_949_C8180"                  0.00014,      0.0     -0.00298044
"Line.MDV201_C_1P024_A8100"                   0.02777,     0.02     -0.162769
"Line.MDV201_HN_2_166_C33824"                 0.00284,     0.01     -0.00757814
"Line.MDV201_HN_2_827_A14873"                 0.00034,      0.0     -0.00574566
"Line.HN_2P017_SW"                            0.00000,      0.0     -2.07659E-005
"Line.MDV201_62249ELB"                        0.00000,      0.0     3.31946E-010
"Line.MDV201_HN_2_397_B63634"                 0.01436,     0.01     0.00284837
"Line.MDV201_C_1P037_A1160467"                0.00827,     0.01     -0.0548383
"Line.MDV201_HN_2_280_A8185"                  0.00008,      0.0     -0.00573574
"Line.MDV201_HN_2_794_ABC791"                 2.67954,     0.04     9.2936
"Line.MDV201_HN_2_677_C62303"                 0.00126,     0.00     -0.00756804
"Line.MDV201_100478FUSE"                      0.00000,      0.0     -0.000382718
"Line.MDV201_HN_2_115_ABC58446"               0.01603,     0.01     -0.00944814
"Line.MDV201_HN_2_895_B52515"                 0.00458,     0.01     -0.000110557
"Line.MDV201_98795FUSE"                       0.00000,      0.0     -0.00164229
"Line.MDV201_HN_2_246_B39602"                 0.00186,     0.00     -0.00810269
"Line.MDV201_DA_8_149_ABC56778"               0.09112,     0.02     0.0795527
"Line.MDV201_HN_2_083_ABC62239"               0.12861,     0.01     0.180607
"Line.MDV201_DA_8_145_ABC46393"               0.00000,      0.0     -0.0460779
"Line.MDV201_HN_2_729_B28246"                 0.00005,      0.0     -0.0038247
"Line.MDV201_HN_2_954_B39771"                 0.00069,      0.0     -0.00646543
"Line.MDV201_108776FUSE"                      0.00000,      0.0     -0.000366742
"Line.HN_2P028_SW"                            0.00000,      0.0     -2.05105E-005
"Line.MDV201_795ELB"                          0.00000,      0.0     4.21056E-010
"Line.MDV201_1140227FUSE"                     0.00000,      0.0     -0.000369022
"Line.MDV201_HN_2_488_C8103"                  0.00295,     0.01     -0.00350232
"Line.MDV201_DA_8_917_A56768"                 0.05117,     0.02     0.0499114
"Line.MDV201_HN_2_029_ABC62262"               0.20429,     0.02     0.289212
"Line.MDV201_HN_2_955_B39752"                 0.00046,      0.0     -0.00671428
"Line.MDV201_DA_8_215_B1017348"               0.00361,     0.01     -0.0124514
"Line.MDV201_DA_8_678_A56764"                 0.00234,     0.01     -0.00661024
"Line.MDV201_HN_2_834_B39617"                 0.00235,     0.00     -0.00592582
"Line.MDV201_HN_2_906_A39580"                 0.00010,      0.0     -0.00272161
"Line.MDV201_DA_8_734_C74440"                 0.00259,     0.00     -0.00323297
"Line.MDV201_DA_8_157_ABC58429"               0.03014,     0.01     0.0280957
"Line.MDV201_HN_2_605_A21655"                 0.01958,     0.02     0.00424277
"Line.MDV201_HN_2_636_AC28249"                0.05160,     0.02     0.033738
"Line.MDV201_HN_2_705_ABC52524"               0.14353,     0.02     0.222637
"Line.MDV201_DA_8_928_A39733"                 0.01479,     0.01     0.00488023
"Line.MDV201_HN_2_383_ABC8113"                0.02519,     0.01     -0.0111223
"Line.MDV201_HN_2_803_B837"                   0.03166,     0.02     0.0256028
"Line.SW-HN_2_793_SW"                         0.38696,     0.01     0.386725
"Line.MDV201_796USD"                          0.00009,      0.0     0.277702
"Line.MDV201_HN_1_332_C28263"                 0.00002,      0.0     -0.00622132
"Line.MDV201_HN_2_890_B52521"                 0.00169,     0.01     -0.00875836
"Line.MDV201_HN_2_377_ABC28196"               0.00008,      0.0     -0.0377149
"Line.MDV201_HN_1_331_C28262"                 0.00004,      0.0     -0.00933213
"Line.MDV201_HN_2_628_C52531"                 0.00074,      0.0     -0.00826549
"Line.MDV201_HN_2_964_A14870"                 0.02171,     0.02     0.00407897
"Line.MDV201_DA_8_200_C46399"                 0.04609,     0.02     0.0196467
"Line.MDV201_106895FUSE"                      0.00000,      0.0     -0.000375692
"Line.HN_2P054_SW"                            0.00000,      0.0     -2.27208E-005
"Line.MDV201_1163443ELB"                      0.00000,      0.0     3.46945E-021
"Line.MDV201_DA_8_142_ABC6584"                0.18885,     0.02     0.256579
"Line.MDV201_1144249FUSE"                     0.00001,      0.0     8.21599E-007
"Line.MDV201_HN_2_965_A63726"                 0.01304,     0.01     -0.000568926
"Line.MDV201_C_1_410_A8131"                   0.00155,     0.00     -0.00681631
"Line.MDV201_HN_2_463_C62234"                 0.00575,     0.01     -0.00126299
"Line.MDV201_HN_2_133_ABC8083"                0.71058,     0.04     0.614949
"Line.MDV201_HN_2_840_B52518"                 0.08450,     0.03     0.0811066
"Line.MDV201_HN_2_808_ABC783"                 2.58196,     0.03     8.99072
"Line.MDV201_HN_2_608_A8133"                  0.00001,      0.0     -0.00558747
"Line.MDV201_C_1P032_1160490"                 0.00000,      0.0     6.93889E-021
"Line.MDV201_HN_2_077_C28274"                 0.00027,      0.0     -0.0104307
"Line.MDV201_HN_2_711_A63676"                 0.00075,      0.0     -0.00464339
"Line.MDV201_HN_2_923_C28266"                 0.00003,      0.0     -0.00407375
"Line.MDV201_HN_21041_C39773"                 0.00008,      0.0     -0.0131877
"Line.MDV201_HN_2_644_A28238"                 0.00867,     0.01     0.000943268
"Line.MDV201_1144260FUSE"                     0.00006,      0.0     0.00253724
"Line.MDV201_HN_2_539_C8098"                  0.00070,      0.0     -0.00556712
"Line.MDV201_HN_2_800_B850"                   0.00947,     0.01     0.00337066
"Line.MDV201_HN_2_092_ABC63711"               0.99890,     0.05     1.51333
"Line.MDV201_HN_2P014_B1160485"               0.00296,     0.00     -0.0568481
"Line.MDV201_C_1_412_A8128"                   0.00092,     0.00     -0.00536989
"Line.MDV201_HN_2_533_A8117"                  0.00033,      0.0     -0.00682409
"Line.MDV201_HN_2_970_A63710"                 0.00047,      0.0     -0.00636711
"Line.MDV201_C_1_400_A21653"                  0.01197,     0.01     0.00058109
"Line.MDV201_HN_2_124_C63703"                 0.00272,     0.01     -0.0146317
"Line.MDV201_106254FUSE"                      0.00000,      0.0     -0.000370476
"Line.MDV201_HN_1_380_C1012407"               0.00030,      0.0     -0.00590569
"Line.MDV201_HN_2_381_ABC1010731"             0.04012,     0.01     0.00178852
"Line.MDV201_DA_8_732_C74453"                 0.00806,     0.01     -0.00249148
"Line.MDV201_DA_8_144_ABC6582"                0.08834,     0.01     0.121224
"Line.MDV201_HN_1_147_C1012412"               0.00050,      0.0     -0.0080657
"Line.MDV201_HN_2_846_B69620"                 0.03435,     0.02     0.0289776
"Line.MDV201_HN_2_814_ABC14891"               1.11528,     0.05     1.68546
"Line.MDV201_DA_8_868_B1103250"               0.00000,      0.0     -0.00640301
"Line.MDV201_1017350FUSE"                     0.00000,      0.0     -0.000315736
"Line.MDV201_HN_2_719_C14872"                 0.00089,      0.0     -0.00324771
"Line.MDV201_HN_2_930_B62301"                 0.00006,      0.0     -0.0106317
"Line.MDV201_HN_2_407_B809"                   0.02465,     0.02     0.0100458
"Line.MDV201_HN_2_650_A28242"                 0.00066,      0.0     -0.00767699
"Line.MDV201_DA_8_492_ABC74428"               0.04047,     0.01     0.0323981
"Line.MDV201_HN_2_151_C14833"                 0.04610,     0.04     0.00982078
"Line.MDV201_HN_2_641_AC14893"                0.03637,     0.02     0.0233665
"Line.MDV201_DA_8_203_C46407"                 0.08540,     0.05     0.0340729
"Line.MDV201_HN_1_172_A94737"                 0.00010,      0.0     -0.00904251
"Line.MDV201_HN_1_165_C89780"                 0.00035,      0.0     -0.0088055
"Line.MDV201_HN_2_127_C63708"                 0.00220,     0.01     -0.00635329
"Line.MDV201_PB_0928_A1000987"                0.00002,      0.0     -0.10427
"Line.MDV201_HN_2_128_ABC28288"               0.01827,     0.01     -0.0195442
"Line.SW-HN_2_381_SW"                         0.00093,     0.00     0.000704175
"Line.MDV201_1010732USD"                      0.00001,      0.0     -0.000798727
"Line.MDV201_1144262FUSE"                     0.00001,      0.0     -5.83446E-005
"Line.MDV201_C_1_138_ABC1127424"              0.00000,      0.0     -0.0630802
"Line.MDV201_DA_8_234_ABC56762"               0.10514,     0.01     0.125253
"Line.MDV201_1144253FUSE"                     0.00000,      0.0     -0.000352526
"Line.MDV201_HN_2_120_A28281"                 0.00263,     0.01     -0.00684795
"Line.MDV201_HN_1_274_A94747"                 0.00000,      0.0     -0.00694347
"Line.MDV201_HN_2_852_B39588"                 0.00364,     0.01     -0.00469076
"Line.MDV201_HN_2_820_B39623"                 0.00388,     0.01     -0.00645653
"Line.MDV201_C_1_506_A8143"                   0.02149,     0.01     0.0122631
"Line.MDV201_DA_8_216_B1017349"               0.00084,      0.0     -0.00810731
"Line.MDV201_HN_2_291_ABC63681"               0.18710,     0.01     0.370514
"Line.MDV201_106259FUSE"                      0.00002,      0.0     0.000804969
"Line.MDV201_HN_2_382_ABC823"                 0.02089,     0.01     0.000753087
"Line.MDV201_HN_2_821_B39618"                 0.00096,     0.00     -0.00716616
"Line.MDV201_HN_2_927_C94731"                 0.00019,      0.0     -0.00955292
"Line.MDV201_HN_2_235_ABC854"                 0.00005,      0.0     -0.0335619
"Line.MDV201_HN_2_306_ABC28286"               0.01189,     0.01     -0.00955168
"Line.MDV201_C_1_411_A8127"                   0.00121,     0.00     -0.00710797
"Line.MDV201_HN_2_520_A8092"                  0.01628,     0.02     0.00268884
"Line.MDV201_HN_2_420_A814"                   0.00906,     0.01     0.00232771
"Line.MDV201_HN_2_153_B14829"                 0.74509,     0.12     0.380988
"Line.MDV201_HN_2_870_C831"                   0.03337,     0.02     0.0273732
"Line.MDV201_C_1_354_B1008227"                0.00009,      0.0     -0.00835955
"Line.MDV201_HN_21036_ABC28186"               0.00006,      0.0     -0.0393009
"Line.MDV201_DA_8_139_B56756"                 0.00081,      0.0     -0.0159819
"Line.MDV201_HN_2_422_A790"                   0.02306,     0.02     0.00990399
"Line.HN_2P011_SW"                            0.00041,      0.0     0.000390026
"Line.MDV201_15005ELB"                        0.00000,      0.0     6.27573E-008
"Line.MDV201_1149717FUSE"                     0.00000,      0.0     -0.00161529
"Line.MDV201_DA_8_218_B8204"                  0.00006,      0.0     -0.00731902
"Line.MDV201_HN_2_387_B804"                   0.00125,     0.00     -0.00670106
"Line.MDV201_HN_2_859_B94734"                 0.00006,      0.0     -0.00758441
"Line.MDV201_HN_2_830_A14875"                 0.00002,      0.0     -0.00463367
"Line.MDV201_1012406FUSE"                     0.00000,      0.0     -0.000303356
"Line.MDV201_HN_2_186_ABC15011"               0.34459,     0.03     0.483802
"Line.MDV201_HN_2_522_C855"                   0.01656,     0.02     0.00105294
"Line.MDV201_108027FUSE"                      0.00000,      0.0     -0.000375806
"Line.MDV201_1010727FUSE"                     0.00001,      0.0     0.000202293
"Line.MDV201_HN_2_831_ABC39762"               0.00000,      0.0     -0.00858414
"Line.MDV201_1145433FUSE"                     0.00000,      0.0     -0.000376381
"Line.MDV201_HN_2_540_C8108"                  0.00019,      0.0     -0.00463372
"Line.MDV201_HN_2_653_A14878"                 0.00020,      0.0     -0.00801902
"Line.MDV201_C_1_083_B69488"                  0.00029,      0.0     -0.00386981
"Line.MDV201_HN_2P016_B1160487"               0.00094,     0.00     -0.123743
"Line.MDV201_HN_2_223_B8168"                  0.00019,      0.0     -0.0124897
"Line.MDV201_1163441ELB-1_SW"                 0.00000,      0.0     -2.2724E-005
"Line.MDV201_1163441ELB"                      0.00000,      0.0     2.99138E-014
"Line.MDV201_HN_2_731_B14852"                 0.00004,      0.0     -0.0134484
"Line.C_1P035_SW"                             0.00023,      0.0     0.000206732
"Line.MDV201_8082ELB"                         0.00000,      0.0     3.49364E-008
"Line.MDV201_HN_2_064_C14871"                 0.00146,     0.00     -0.00520934
"Line.MDV201_HN_2_878_B1144266"               0.00175,     0.00     -0.00336428
"Line.MDV201_HN_2_149_C28298"                 0.01045,     0.02     -0.00763101
"Line.MDV201_HN_1_177_C69626"                 0.00004,      0.0     -0.002614
"Line.MDV201_DA_8_809_C46402"                 0.00008,      0.0     -0.00984589
"Line.MDV201_1144263FUSE"                     0.00000,      0.0     -0.000295104
"Line.MDV201_HN_2_868_C833"                   0.06333,     0.03     0.0573176
"Line.MDV201_HN_2_836_B39616"                 0.00023,      0.0     -0.00559965
"Line.MDV201_103731FUSE"                      0.00000,      0.0     -0.000320567
"Line.MDV201_C_1P031_A1160501"                0.00010,      0.0     -0.0869476
"Line.MDV201_HN_2_404_B799"                   0.00003,      0.0     -0.00378744
"Line.MDV201_HN_2_121_C28294"                 0.00024,      0.0     -0.00631915
"Line.MDV201_C_1_389_A1000986"                0.00457,     0.01     -0.0024808
"Line.MDV201_HN_2_491_C8114"                  0.00161,     0.00     -0.00801166
"Line.MDV201_HN_2_837_B39584"                 0.06898,     0.02     0.0679176
"Line.MDV201_DA_8_150_ABC56781"               0.07261,     0.01     0.060869
"Line.MDV201_C_1P026_A1160505"                0.00088,      0.0     -0.0758393
"Line.MDV201_HN_2_659_C62237"                 0.13865,     0.04     0.138799
"Line.MDV201_HN_2_893_A39590"                 0.01387,     0.02     0.000432681
"Line.HN_2P009_SW"                            0.00073,      0.0     0.000703311
"Line.MDV201_15008ELB"                        0.00000,      0.0     1.10505E-007
"Line.MDV201_HN_2_173_B39600"                 0.00000,      0.0     -0.00848338
"Line.MDV201_HN_2_220_B44580"                 0.00100,     0.01     -0.0110287
"Line.MDV201_HN_2_630_C28228"                 0.00249,     0.00     -0.00552544
"Line.MDV201_HN_2_427_B826"                   0.00024,      0.0     -0.00908483
"Line.MDV201_C_1P032_A69460"                  0.00038,      0.0     -0.0973261
"Line.MDV201_HN_2_350_ABC52517"               0.04951,     0.01     0.0163346
"Line.MDV201_HN_2_796_ABC782"                 3.06263,     0.04     10.6644
"Line.MDV201_HN_1_174_A94742"                 0.00012,      0.0     -0.0103738
"Line.MDV201_HN_2_084_B38389"                 0.00012,      0.0     -0.0125906
"Line.MDV201_HN_2_875_C63670"                 0.00001,      0.0     -0.00452866
"Line.MDV201_1160504ELB-1_SW"                 0.00003,      0.0     6.66549E-006
"Line.MDV201_1160504ELB"                      0.00000,      0.0     4.45336E-009
"Line.MDV201_HN_2P028_A1160489"               0.00018,      0.0     -0.174506
"Line.MDV201_HN_2_622_C28223"                 0.00722,     0.01     -0.00170272
"Line.MDV201_HN_2_842_B94740"                 0.06855,     0.03     0.0632488
"Line.MDV201_C_1_066_ABC8078"                 0.36297,     0.03     0.286333
"Line.MDV201_HN_1_173_A94739"                 0.00012,      0.0     -0.0102531
"Line.MDV201_HN_1_150_C1012408"               0.00015,      0.0     -0.00242474
"Line.MDV201_C_1P022_A1160458"                0.02637,     0.01     -0.0686583
"Line.MDV201_106884FUSE"                      0.00001,      0.0     7.4004E-005
"Line.MDV201_1144243FUSE"                     0.00000,      0.0     -0.000296409
"Line.MDV201_HN_2_843_B69621"                 0.05768,     0.02     0.052079
"Line.MDV201_1160472ELB-1_SW"                 0.00093,     0.00     0.000903448
"Line.MDV201_1160472ELB"                      0.00000,      0.0     1.41007E-007
"Line.MDV201_HN_2_356_C28301"                 0.00079,      0.0     -0.00594791
"Line.MDV201_HN_2_666_C62312"                 0.00030,      0.0     -0.00879164
"Line.MDV201_HN_2_802_B836"                   0.03262,     0.02     0.0274841
"Line.MDV201_HN_1_210_A28279"                 0.00083,      0.0     -0.0052176
"Line.MDV201_HN_2_616_ABC28226"               0.12372,     0.01     0.243338
"Line.MDV201_HN_2_212_C14834"                 0.02806,     0.03     0.00335703
"Line.MDV201_HN_1_154_C89826"                 0.00015,      0.0     -0.0091019
"Line.MDV201_HN_2_393_ABC63659"               1.22121,     0.02     4.17961
"Line.MDV201_HN_2_911_C44579"                 0.00000,      0.0     -0.0112725
"Line.MDV201_HN_2_030_ABC62265"               0.18582,     0.02     0.262328
"Line.MDV201_HN_2_638_C28237"                 0.00008,      0.0     -0.00781635
"Line.MDV201_DA_8_946_B56776"                 0.00017,      0.0     -0.00808261
"Line.MDV201_HN_2_352_ABC69623"               0.05244,     0.02     0.0174862
"Line.MDV201_HN_2_793_ABC1023346_SW"          0.38696,     0.01     0.386723
"Line.MDV201_HN_2_793_ABC1023346"             2.05066,     0.03     7.11237
"Line.MDV201_108774FUSE"                      0.00000,      0.0     -0.000371392
"Line.MDV201_DA_8_786_B1144236"               0.09724,     0.05     0.0394128
"Line.MDV201_HN_2_492_C8123"                  0.00087,      0.0     -0.0084649
"Line.MDV201_HN_2_848_B14854"                 0.03066,     0.02     0.0243401
"Line.HN_2P014_SW"                            0.00012,      0.0     0.000102081
"Line.MDV201_39754ELB"                        0.00000,      0.0     1.8874E-008
"Line.MDV201_1023343FUSE"                     0.00000,      0.0     -0.000368702
"Line.MDV201_HN_2P026_A1010728"               0.00007,      0.0     -0.0621665
"Line.MDV201_HN_2_535_C8140"                  0.00574,     0.01     -0.00407972
"Line.MDV201_106883FUSE"                      0.00007,      0.0     0.00339988
"Line.MDV201_HN_2_408_ABC63655"               2.60906,     0.04     9.02435
"Line.MDV201_HN_2_849_B94730"                 0.01504,     0.01     0.00748679
"Line.MDV201_104355FUSE"                      0.00000,      0.0     -0.0003575
"Line.MDV201_DA_8_053_A63763"                 0.00000,      0.0     -0.0116747
"Line.MDV201_HN_21040_C39772"                 0.00002,      0.0     -0.00359259
"Line.MDV201_HN_2_672_C62308"                 0.00156,     0.00     -0.00593534
"Line.MDV201_HN_2_643_A28241"                 0.01355,     0.01     0.00438808
"Line.MDV201_DA_8_204_C46404"                 0.03243,     0.02     0.0120573
"Line.MDV201_HN_1_178_C69653"                 0.00050,      0.0     -0.0104771
"Line.MDV201_HN_2_360_ABC8165"                0.19664,     0.01     0.294616
"Line.MDV201_HN_2_606_A8132"                  0.00026,      0.0     -0.00553988
"Line.MDV201_HN_2_810_ABC63685"               3.30988,     0.04     11.5256
"Line.MDV201_HN_2_602_A8151"                  0.00853,     0.01     0.0035754
"Line.MDV201_HN_2_147_C14840"                 0.00101,     0.00     -0.00708738
"Line.MDV201_HN_2_461_C62251"                 0.00136,     0.00     -0.00557156
"Line.MDV201_HN_2_527_C8153"                  0.00086,      0.0     -0.008727
"Line.MDV201_HN_2_635_AC63666"                0.08631,     0.02     0.0612058
"Line.MDV201_C_1P032_A1160490"                0.00000,      0.0     -0.117136
"Line.MDV201_1011953FUSE"                     0.00000,      0.0     -0.0016414
"Line.MDV201_HN_1_450_B52513"                 0.00184,     0.00     -0.00424014
"Line.MDV201_HN_2_062_C28277"                 0.00003,      0.0     -0.00662493
"Line.MDV201_HN_2_854_B39586"                 0.00076,      0.0     -0.00549117
"Line.MDV201_HN_2_458_B39599"                 0.00015,      0.0     -0.00807201
"Line.MDV201_C_1P034_A1160492"                0.00641,     0.01     -0.13208
"Line.MDV201_1160484ELB-1_SW"                 0.00012,      0.0     0.000102019
"Line.MDV201_1160484ELB"                      0.00000,      0.0     1.88642E-008
"Line.MDV201_C_1_124_ABC69481"                0.00358,     0.00     -0.0610951
"Line.MDV201_1160461ELB-1_SW"                 0.00040,      0.0     0.000377931
"Line.MDV201_1160461ELB"                      0.00000,      0.0     6.10384E-008
"Line.MDV201_106882FUSE"                      0.00000,      0.0     -0.000376395
"Line.MDV201_HN_2_410_A819"                   0.00059,      0.0     -0.00658451
"Line.MDV201_HN_2_336_B8196"                  0.00034,      0.0     -0.00917922
"Line.MDV201_HN_2_678_C62304"                 0.00041,      0.0     -0.00851788
"Line.MDV201_HN_2_649_A28248"                 0.00244,     0.00     -0.00532121
"Line.MDV201_C_1_267_ABC8074"                 0.53336,     0.04     0.431671
"Line.MDV201_HN_2_067_ABC14836"               0.36993,     0.05     0.543677
"Line.MDV201_HN_2_031_ABC62264"               0.17668,     0.02     0.248448
"Line.MDV201_HN_2_816_ABC14879"               0.24879,     0.03     0.352683
"Line.MDV201_HN_1_401_A39574"                 0.00001,      0.0     -0.015267
"Line.MDV201_HN_2_537_C8094"                  0.00483,     0.01     -0.00469778
"Line.MDV201_HN_2_915_ABC39576"               0.05706,     0.01     0.0192183
"Line.MDV201_HN_1_166_A39571"                 0.00587,     0.01     -0.0113251
"Line.MDV201_HN_2_229_ABC8126"                0.02332,     0.01     -0.0136856
"Line.MDV201_C_1_069_ABC69484"                0.08623,     0.01     0.226283
"Line.MDV201_102184FUSE"                      0.00000,      0.0     -0.000374434
"Line.HN_2P012_SW"                            0.00022,      0.0     0.000202475
"Line.MDV201_39759ELB"                        0.00000,      0.0     3.41744E-008
"Line.MDV201_HN_2_531_C857"                   0.00259,     0.00     -0.00143319
"Line.MDV201_HN_2_861_C39629"                 0.00049,      0.0     -0.00734382
"Line.MDV201_1144254FUSE"                     0.00000,      0.0     -0.000376993
"Line.MDV201_HN_2_487_C8099"                  0.00658,     0.01     -0.00392
"Line.MDV201_HN_2_489_C8104"                  0.00336,     0.01     -0.005058
"Line.MDV201_HN_1_455_A94736"                 0.00003,      0.0     -0.00246253
"Line.MDV201_DA_8_674_A6597"                  0.02056,     0.02     0.00695071
"Line.MDV201_DA_8_918_A56770"                 0.07481,     0.02     0.0729103
"Line.MDV201_HN_2_068_ABC14845"               0.20053,     0.03     0.324754
"Line.MDV201_HN_2_706_C52532"                 0.03988,     0.02     0.0302255
"Line.MDV201_HN_2_655_A14863"                 0.00096,     0.00     -0.00942341
"Line.MDV201_1000983FUSE"                     0.00005,      0.0     0.0020884
"Line.MDV201_HN_2_117_ABC28284"               0.01778,     0.01     -0.0105455
"Line.MDV201_DA_8_936_ABC67891"               0.00000,      0.0     -0.0475982
"Line.MDV201_HN_2_937_B14993"                 0.01218,     0.01     0.00212032
"Line.MDV201_DA_8_697_B46390"                 0.00067,      0.0     -0.00937967
"Line.MDV201_HN_2_656_A14864"                 0.00174,     0.00     -0.0103849
"Line.MDV201_HN_2_813_ABC63654"               1.05153,     0.05     1.58904
"Line.MDV201_HN_2_428_B812"                   0.00989,     0.01     -0.000445685
"Line.MDV201_HN_2_228_ABC810"                 0.52847,     0.02     1.15436
"Line.MDV201_100479FUSE"                      0.00000,      0.0     -0.000305985
"Line.MDV201_DA_8_729_C74452"                 0.00151,     0.00     -0.00607283
"Line.HN_2P010_SW"                            0.00052,      0.0     0.000493414
"Line.MDV201_15004ELB"                        0.00000,      0.0     7.85147E-008
"Line.MDV201_C_1_403_A21649"                  0.00352,     0.00     -0.00137898
"Line.MDV201_HN_2_722_C52525"                 0.00003,      0.0     -0.0045383
"Line.MDV201_106261FUSE"                      0.00001,      0.0     5.05283E-005
"Line.MDV201_C_1_407_A8136"                   0.00116,     0.00     -0.00447899
"Line.MDV201_HN_2_872_C63667"                 0.01620,     0.01     0.0101192
"Line.MDV201_100475FUSE"                      0.00000,      0.0     -0.000381701
"Line.MDV201_DA_8_727_C39744"                 0.02622,     0.02     0.0102857
"Line.MDV201_DA_8_257_ABC88677"               0.00000,      0.0     -0.0385261
"Line.MDV201_103730FUSE"                      0.00000,      0.0     -0.000364468
"Line.MDV201_1160476ELB-1_SW"                 0.00072,      0.0     0.000703083
"Line.MDV201_1160476ELB"                      0.00000,      0.0     1.10471E-007
"Line.MDV201_HN_2_712_A63678"                 0.00083,      0.0     -0.00650644
"Line.MDV201_HN_2_661_C62248"                 0.00024,      0.0     -0.00690502
"Line.MDV201_HN_2_924_C28267"                 0.00008,      0.0     -0.0115125
"Line.MDV201_1144244FUSE"                     0.00000,      0.0     -0.000366963
"Line.MDV201_HN_2_465_C62233"                 0.01065,     0.01     0.00348825
"Line.MDV201_HN_2_943_C89813"                 0.00469,     0.01     -0.000269069
"Line.MDV201_DA_8_971_C46408"                 0.00001,      0.0     -0.00126743
"Line.MDV201_HN_2_663_C62247"                 0.07888,     0.02     0.0777967
"Line.MDV201_HN_2_934_B15006"                 0.05552,     0.03     0.0315239
"Line.MDV201_HN_1_170_A94727"                 0.00030,      0.0     -0.00776136
"Line.MDV201_HN_2_085_ABC38388"               0.26108,     0.01     0.392683
"Line.MDV201_HN_2_877_C63672"                 0.00563,     0.01     -0.00155136
"Line.C_1P037_SW"                             0.00036,      0.0     0.000333817
"Line.MDV201_8076ELB"                         0.00000,      0.0     5.4306E-008
"Line.MDV201_1149715FUSE"                     0.00000,      0.0     -0.000366809
"Line.MDV201_HN_2_609_C28278"                 0.00000,      0.0     -0.0065564
"Line.MDV201_HN_2_624_C14866"                 0.00138,     0.00     -0.00837785
"Line.MDV201_DA_8_158_C58433"                 0.02496,     0.01     0.0110823
"Line.MDV201_1000988FUSE"                     0.00000,      0.0     -0.000372102
"Line.MDV201_HN_2_760_ABC28208"               0.00002,      0.0     -0.0226276
"Line.MDV201_C_1P029_A1160456"                0.00232,     0.00     -0.0829702
"Line.MDV201_DA_8_920_A56783"                 0.00122,     0.00     -0.0097456
"Line.MDV201_1010740FUSE"                     0.00000,      0.0     2.61427E-010
"Line.MDV201_HN_2_183_ABC62261"               0.00008,      0.0     -0.031472
"Line.MDV201_HN_2_146_ABC63663"               0.34230,     0.02     0.720253
"Line.MDV201_HN_2_720_C14849"                 0.00107,     0.00     -0.00809327
"Line.MDV201_HN_2_668_C44578"                 0.00000,      0.0     -0.00783244
"Line.MDV201_HN_2_932_B6570"                  0.01730,     0.01     0.0102445
"Line.MDV201_HN_2_416_A844"                   0.00688,     0.01     -0.0017551
"Line.MDV201_DA_7_167_C39741"                 0.00036,      0.0     -0.0122562
"Line.MDV201_1144259FUSE"                     0.00001,      0.0     0.000166929
"Line.MDV201_HN_2_950_C8190"                  0.00115,     0.00     -0.00544863
"Line.MDV201_1160482ELB-1_SW"                 0.00002,      0.0     -3.38658E-006
"Line.MDV201_1160482ELB"                      0.00000,      0.0     2.79965E-009
"Line.MDV201_HN_2_669_C89789"                 0.04832,     0.02     0.0457683
"Line.MDV201_HN_2_940_B39775"                 0.00476,     0.01     -0.00560393
"Line.MDV201_HN_2_101_ABC69487"               0.29640,     0.03     0.207375
"Line.MDV201_HN_2_231_ABC28199"               0.00008,      0.0     -0.0361511
"Line.MDV201_HN_2_795_ABC788"                 2.99398,     0.04     10.3843
"Line.MDV201_HN_1_278_C89797"                 0.00002,      0.0     -0.00995904
"Line.MDV201_DA_7_205_C39749"                 0.00020,      0.0     -0.0120951
"Line.MDV201_805FUSE"                         0.00001,      0.0     0.000254015
"Line.MDV201_HN_2_069_ABC14841"               0.24106,     0.03     0.390378
"Line.MDV201_HN_2_327_B62296"                 0.00001,      0.0     -0.00584084
"Line.MDV201_HN_2_896_B52516"                 0.00624,     0.01     -0.000149857
"Line.MDV201_99414FUSE"                       0.00000,      0.0     1.41205E-007
"Line.MDV201_HN_2_632_C28235"                 0.00939,     0.01     0.000238332
"Line.MDV201_DA_8_493_A74432"                 0.00005,      0.0     -0.00217245
"Line.MDV201_DA_8_679_A56772"                 0.00052,      0.0     -0.00816218
"Line.MDV201_HN_2_730_B14851"                 0.00004,      0.0     -0.0142109
"Line.MDV201_HN_2_094_ABC51012"               0.49253,     0.02     0.744268
"Line.MDV201_1149722FUSE"                     0.00000,      0.0     -0.000373406
"Line.MDV201_HN_2_221_B8169"                  0.00075,      0.0     -0.0147869
"Line.MDV201_HN_2_674_C62310"                 0.04859,     0.02     0.0409717
"Line.MDV201_HN_2_938_B14992"                 0.01782,     0.02     0.00175044
"Line.SW-HN_2_393_SW"                         0.15626,     0.00     0.156035
"Line.MDV201_107109USD"                       0.00005,      0.0     0.111246
"Line.MDV201_DA_8_804_ABC88656"               0.00026,      0.0     -0.0342968
"Line.MDV201_HN_2_517_AC1144258"              0.01308,     0.00     0.00484207
"Line.MDV201_HN_2_956_B39753"                 0.00017,      0.0     -0.00845823
"Line.MDV201_HN_2_165_C39776"                 0.01124,     0.02     -0.00986669
"Line.MDV201_HN_2_675_C89783"                 0.01386,     0.01     0.00666954
"Line.MDV201_HN_2_947_C8175"                  0.00054,      0.0     -0.00773621
"Line.MDV201_DA_8_923_A56785"                 0.05752,     0.02     0.0517146
"Line.MDV201_HN_2_524_C858"                   0.00313,     0.01     -0.0043221
"Line.MDV201_HN_2_637_C28240"                 0.00058,      0.0     -0.00761164
"Line.MDV201_C_1_387_A8097"                   0.01044,     0.01     4.90152E-005
"Line.MDV201_102185FUSE"                      0.00000,      0.0     -0.000339971
"Line.MDV201_DA_8_152_ABC74420"               0.07901,     0.02     0.0633938
"Line.MDV201_HN_2_310_A39613"                 0.00358,     0.01     -0.00477357
"Line.MDV201_HN_2_196_C102187"                0.00001,      0.0     3.48582E-005
"Line.MDV201_HN_2_804_B39625"                 0.02694,     0.02     0.0205848
"Line.MDV201_C_1P028_A1160454"                0.00155,     0.00     -0.0260255
"Line.MDV201_HN_2P054_C1163442"               0.00000,      0.0     -0.103649
"Line.MDV201_1160466ELB-1_SW"                 0.00028,      0.0     0.000257833
"Line.MDV201_1160466ELB"                      0.00000,      0.0     4.27261E-008
"Line.MDV201_DA_8_159_ABC58426"               0.00048,      0.0     -0.0459123
"Line.MDV201_HN_2_629_C28229"                 0.00176,     0.00     -0.00765625
"Line.MDV201_HN_2_376_ABC28193"               0.00007,      0.0     -0.0325004
"Line.MDV201_HN_2_431_B789"                   0.00225,     0.00     -0.00509947
"Line.MDV201_HN_2_610_A8130"                  0.00095,     0.00     -0.00898915
"Line.MDV201_HN_2_682_A39565"                 0.00100,     0.00     -0.00799269
"Line.MDV201_HN_2_944_C44577"                 0.00871,     0.01     -0.000498277
"Line.MDV201_DA_8_693_B88665"                 0.00036,      0.0     -0.00797292
"Line.MDV201_C_1_067_ABC8072"                 0.54472,     0.04     0.4409
"Line.C_1P036_SW"                             0.00028,      0.0     0.000258066
"Line.MDV201_8077ELB"                         0.00000,      0.0     4.27603E-008
"Line.MDV201_HN_2_966_A63718"                 0.01212,     0.01     -0.000525031
"Line.MDV201_1160491ELB-1_SW"                 0.00004,      0.0     1.3197E-005
"Line.MDV201_1160491ELB"                      0.00000,      0.0     5.44135E-009
"Line.MDV201_HN_2_683_A39601"                 0.00008,      0.0     -0.00521952
"Line.MDV201_HN_2_953_B14996"                 0.00393,     0.01     -0.00587727
"Line.MDV201_HN_2_281_A8186"                  0.00015,      0.0     -0.0111822
"Line.MDV201_HN_2_456_ABC62242"               0.24973,     0.02     0.350713
"Line.MDV201_HN_2_126_C63704"                 0.00002,      0.0     -0.00722979
"Line.MDV201_DA_8_935_ABC107782"              0.00000,      0.0     -0.0416484
"Line.MDV201_C_1P035_A1160496"                0.00888,     0.01     -0.0936448
"Line.MDV201_105409FUSE"                      0.00010,      0.0     0.00687612
"Line.SW-C_1_268_SW"                          0.00996,     0.00     0.00973397
"Line.MDV201_1140228USD"                      0.00005,      0.0     0.00619161
"Line.MDV201_HN_2_102_ABC39611"               0.24281,     0.03     0.170652
"Line.MDV201_HN_2_645_A28234"                 0.00551,     0.01     -0.0019557
"Line.MDV201_1160502ELB-1_SW"                 0.00000,      0.0     -2.25553E-005
"Line.MDV201_1160502ELB"                      0.00000,      0.0     3.84688E-014
"Line.MDV201_HN_2_116_ABC28285"               0.01969,     0.01     -0.0116771
"Line.HN_2P008_SW"                            0.00093,     0.00     0.000903738
"Line.MDV201_6569ELB"                         0.00000,      0.0     1.4105E-007
"Line.MDV201_DA_8_724_C46405"                 0.04487,     0.03     0.0159429
"Line.MDV201_HN_1_451_B52514"                 0.00068,      0.0     -0.0096398
"Line.MDV201_100476FUSE"                      0.00000,      0.0     -0.00038257
"Line.MDV201_HN_2_200_ABC841"                 1.86580,     0.08     1.50631
"Line.MDV201_1144248FUSE"                     0.00000,      0.0     -0.000369625
"Line.MDV201_HN_2_603_A8152"                  0.02478,     0.02     0.00964218
"Line.MDV201_HN_2_708_C52527"                 0.01228,     0.01     0.00639548
"Line.MDV201_1140226FUSE"                     0.00000,      0.0     -0.000379156
"Line.MDV201_HN_2_082_ABC62250"               0.26077,     0.02     0.365152
"Line.MDV201_HN_2_991_A798"                   0.01750,     0.01     0.00656038
"Line.MDV201_112113FUSE"                      0.00000,      0.0     -0.000364655
"Line.MDV201_HN_2_460_C62258"                 0.00080,      0.0     -0.00707809
"Line.MDV201_HN_2_963_A14858"                 0.00535,     0.00     0.00100327
"Line.MDV201_DA_8_869_C58437"                 0.04267,     0.03     0.0151678
"Line.MDV201_HN_2_143_ABC63642"               0.87502,     0.03     1.89733
"Line.MDV201_HN_2_123_C28299"                 0.00076,      0.0     -0.00567167
"Line.MDV201_DA_8_959_C74455"                 0.04336,     0.02     0.0175802
"Line.MDV201_106257FUSE"                      0.00000,      0.0     -0.000374522
"Line.MDV201_DA_8_673_A6595"                  0.00903,     0.01     0.00357372
"Line.MDV201_HN_2_369_A28280"                 0.00098,     0.00     -0.00611911
"Line.MDV201_HN_2_651_A28243"                 0.00012,      0.0     -0.00774785
"Line.MDV201_99617FUSE"                       0.00001,      0.0     0.000130784
"Line.MDV201_HN_21095_C1148537"               0.00009,      0.0     -0.0113026
"Line.MDV201_HN_2_807_B39621"                 0.00849,     0.01     0.00180573
"Line.MDV201_DA_8_686_B74445"                 0.01662,     0.01     0.0086659
"Line.MDV201_HN_2_419_A827"                   0.01166,     0.01     0.000566407
"Line.MDV202_HN_2_358_ABC62257"               0.00000,      0.0     -0.0364062
"Line.MDV201_HN_2_479_C8116"                  0.00009,      0.0     -0.0069981
"Line.MDV201_HN_2_406_B806"                   0.04448,     0.03     0.0222864
"Line.MDV201_C_1_068_ABC69490"                0.70736,     0.07     0.587706
"Line.MDV201_HN_2_716_C52523"                 0.01738,     0.01     0.00824195
"Line.MDV201_C_1P038_A1160493"                0.01351,     0.01     -0.0667431
"Line.HN_1P002_SW"                            0.00000,      0.0     -2.21555E-005
"Line.MDV201_1145434ELB"                      0.00000,      0.0     1.22016E-010
"Line.SW-HN_2_029_SW"                         0.01035,     0.00     0.0101273
"Line.MDV201_1144239USD"                      0.00006,      0.0     0.00679699
"Line.MDV201_C_1P033_A1160463"                0.00179,     0.00     -0.125489
"Line.MDV201_1160494ELB-1_SW"                 0.00036,      0.0     0.000333696
"Line.MDV201_1160494ELB"                      0.00000,      0.0     5.42879E-008
"Line.MDV201_HN_2_969_A63709"                 0.00153,     0.00     -0.00675551
"Line.C_1P028_SW"                             0.00015,      0.0     0.000124288
"Line.MDV201_8102ELB"                         0.00000,      0.0     2.23819E-008
"Line.MDV201_DA_8_201_C46403"                 0.04301,     0.02     0.0174344
"Line.MDV201_HN_2_286_ABC8178"                0.27970,     0.03     0.441643
"Line.MDV201_HN_1_449_B94735"                 0.00346,     0.01     -0.00469805
"Line.MDV201_HN_2_912_A6579"                  0.00002,      0.0     -0.00422604
"Line.MDV201_DA_8_677_A56760"                 0.00559,     0.01     -0.00462937
"Line.MDV201_HN_2_164_B6574"                  0.20392,     0.07     0.0979677
"Line.MDV201_HN_2_822_B39619"                 0.00024,      0.0     -0.00703112
"Line.MDV201_HN_1_334_C28312"                 0.00025,      0.0     -0.0146157
"Line.MDV201_HN_2_304_A8174"                  0.00011,      0.0     -0.0122019
"Line.MDV201_HN_2_648_A28250"                 0.00495,     0.01     -0.00407909
"Line.MDV201_DA_8_692_B88660"                 0.00306,     0.01     -0.008209
"Line.MDV201_HN_2_001_B14990"                 0.00026,      0.0     -0.0139862
"Line.MDV201_HN_2_871_C39630"                 0.02185,     0.01     0.0161728
"Line.MDV201_HN_2_132_A1010739"               0.00010,      0.0     -0.00764115
"Line.MDV201_HN_2_486_C1103251"               0.00295,     0.00     -0.00160243
"Line.MDV201_HN_2_288_C63719"                 0.00034,      0.0     -0.00703963
"Line.MDV201_HN_2_618_ABC28220"               0.09107,     0.01     0.174756
"Line.MDV201_DA_8_740_ABC6594"                0.10868,     0.01     0.130244
"Line.MDV201_HN_2_607_A21652"                 0.00007,      0.0     -0.00469975
"Line.MDV201_HN_2_726_A63675"                 0.00030,      0.0     -0.00724541
"Line.MDV201_HN_2_389_B63636"                 0.05984,     0.03     0.0368846
"Line.MDV201_HN_2_103_ABC39605"               0.30807,     0.03     0.219602
"Line.MDV201_DA_8_256_ABC88675"               0.00004,      0.0     -0.045516
"Line.MDV201_HN_2_512_B1144252"               0.00029,      0.0     -0.00713675
"Line.MDV201_HN_2_250_ABC801"                 0.79785,     0.03     1.72813
"Line.MDV201_HN_21000_ABC8084"                0.56168,     0.03     0.486105
"Line.MDV201_HN_2_811_ABC63638"               4.21082,     0.06     14.6053
"Line.MDV201_HN_2_542_A851"                   0.00070,      0.0     -0.00567221
"Line.MDV201_DA_8_778_A58422"                 0.00022,      0.0     -0.0110265
"Line.MDV201_HN_2_832_B69491"                 0.00901,     0.01     0.000668329
"Line.MDV201_1008229FUSE"                     0.00000,      0.0     -0.000344869
"Line.MDV201_HN_2_119_A28282"                 0.00256,     0.01     -0.0066799
"Line.MDV201_HN_2_819_ABC8177"                0.25469,     0.03     0.363999
"Line.MDV201_99419FUSE"                       0.00000,      0.0     -0.000367601
"Line.MDV201_HN_2_247_ABC44582"               0.40981,     0.02     0.621696
"Line.MDV201_HN_2_759_ABC847"                 0.00001,      0.0     -0.0126652
"Line.MDV201_HN_2_155_B39757"                 0.57019,     0.09     0.290939
"Line.MDV201_HN_2_530_C8156"                  0.00017,      0.0     -0.00383699
"Line.C_1P114_SW"                             0.00000,      0.0     -2.22339E-005
"Line.MDV201_8159ELB"                         0.00000,      0.0     6.64836E-011
"Line.MDV201_HN_2_604_A28213"                 0.02289,     0.02     0.0065747
"Line.MDV201_HN_2_879_B825"                   0.00205,     0.01     -0.00712588
"Line.MDV201_HN_2_100_A39592"                 0.00017,      0.0     -0.0123406
"Line.MDV201_HN_2_626_C14867"                 0.00028,      0.0     -0.00903435
"Line.MDV201_HN_2_329_C39765"                 0.00541,     0.01     -0.00475448
"Line.MDV201_HN_2_490_C8110"                  0.00260,     0.01     -0.00710967
"Line.MDV201_HN_2_869_C830"                   0.03451,     0.01     0.0303917
"Line.MDV201_107108FUSE"                      0.00007,      0.0     0.00296878
"Line.MDV201_DA_8_397_C1023342"               0.00012,      0.0     -0.0114526
"Line.MDV201_HN_2P013_B1160483"               0.00428,     0.01     -0.0670761
"Line.MDV201_HN_2_388_B802"                   0.04401,     0.02     0.0263702
"Line.MDV201_HN_2_817_ABC14880"               0.25468,     0.03     0.363546
"Line.MDV201_1144265FUSE"                     0.00001,      0.0     0.000356246
"Line.MDV201_DA_8_735_C74437"                 0.00190,     0.01     -0.00769745
"Line.MDV201_HN_2_076_A14843"                 0.00009,      0.0     -0.00838755
"Line.MDV201_HN_2_838_B39578"                 0.10880,     0.03     0.106521
"Line.MDV201_HN_2_118_ABC28287"               0.02352,     0.01     -0.0253849
"Line.MDV201_HN_2_433_B787"                   0.00050,      0.0     -0.00625188
"Line.MDV201_HN_2_828_ABC28247"               0.94962,     0.04     1.43524
"Line.MDV201_1160464ELB-1_SW"                 0.00023,      0.0     0.000206565
"Line.MDV201_1160464ELB"                      0.00000,      0.0     3.49121E-008
"Line.MDV201_HN_1_175_A94743"                 0.00007,      0.0     -0.00613524
"Line.MDV201_HN_2_631_C28233"                 0.00352,     0.01     -0.00344868
"Line.MDV201_DA_8_927_A74424"                 0.02457,     0.02     0.0151105
"Line.MDV201_HN_2_105_B103729"                0.00005,      0.0     0.00233486
"Line.MDV201_HN_21023_A8193"                  0.00252,     0.01     -0.0055404
"Line.MDV201_HN_2_160_B6573"                  0.72278,     0.13     0.367127
"Line.MDV201_HN_2_371_B6575"                  0.46405,     0.09     0.235057
"Line.MDV201_HN_2_798_B848"                   0.04613,     0.01     0.0456328
"Line.MDV201_HN_1_153_C1012415"               0.00000,      0.0     -0.0135296
"Line.MDV201_HN_2_320_C28302"                 0.00005,      0.0     -0.00655915
"Line.MDV201_HN_2_131_ABC8080"                0.55022,     0.04     0.451504
"Line.MDV201_HN_1_333_C1012409"               0.00041,      0.0     -0.0144481
"Line.MDV201_HN_2_623_C14865"                 0.00280,     0.01     -0.00855632
"Line.MDV201_DA_8_779_A58418"                 0.00033,      0.0     -0.0161068
"Line.MDV201_HN_2_324_C14844"                 0.00002,      0.0     -0.00574624
"Line.MDV201_HN_2_521_C8087"                  0.01484,     0.01     0.00330629
"Line.MDV201_HN_2_415_A845"                   0.00000,      0.0     -0.00679257
"Line.MDV201_HN_2_823_ABC28244"               0.49827,     0.02     0.767131
"Line.MDV201_C_1_405_A8134"                   0.00887,     0.01     -0.00425228
"Line.MDV201_1160462ELB-1_SW"                 0.00001,      0.0     -1.28006E-005
"Line.MDV201_1160462ELB"                      0.00000,      0.0     1.47976E-009
"Line.MDV201_C_1_321_A69464"                  0.00014,      0.0     -0.00538876
"Line.MDV201_HN_2_844_B69622"                 0.05398,     0.02     0.047298
"Line.MDV201_DA_8_861_B1149720"               0.00041,      0.0     -0.0106716
"Line.MDV201_HN_2_403_B792"                   0.00032,      0.0     -0.00617088
"Line.MDV201_HN_2_835_B39615"                 0.00192,     0.00     -0.0089647
"Line.MDV201_HN_21038_AB28191"                0.00000,      0.0     -0.0158368
"Line.MDV201_HN_2_158_B14994"                 1.03928,     0.18     0.528946
"Line.MDV201_HN_2_145_ABC63662"               1.00803,     0.02     3.45872
"Line.MDV201_1012411FUSE"                     0.00000,      0.0     -0.000364697
"Line.MDV201_HN_2_154_B62298"                 0.97125,     0.16     0.496182
"Line.MDV201_HN_2_392_B63661"                 0.13527,     0.04     0.0931587
"Line.MDV201_HN_1_164_C89779"                 0.00057,      0.0     -0.0142695
"Line.MDV201_HN_2_015_ABC63665"               0.35075,     0.02     0.7353
"Line.MDV201_HN_2_639_C28236"                 0.00000,      0.0     -0.00869087
"Line.MDV201_HN_21015_C63716"                 0.00074,      0.0     -0.00553832
"Line.MDV201_HN_2_335_B8197"                  0.00022,      0.0     -0.00943492
"Line.MDV201_HN_2_398_B63633"                 0.00898,     0.01     -0.00194045
"Line.MDV201_HN_2_139_ABC8111"                0.02280,     0.01     -0.0100737
"Line.MDV201_HN_2_078_C28275"                 0.00022,      0.0     -0.0082606
"Line.MDV201_DA_8_719_ABC67893"               0.00000,      0.0     -0.0456034
"Line.MDV201_1160506ELB-1_SW"                 0.00001,      0.0     -1.5373E-005
"Line.MDV201_1160506ELB"                      0.00000,      0.0     1.09653E-009
"Line.MDV201_HN_2_008_C28276"                 0.03066,     0.02     0.00912301
"Line.MDV201_HN_21054_B1144247"               0.00001,      0.0     -0.0146644
"Line.MDV201_HN_2_833_B39620"                 0.00465,     0.01     -0.00221219
"Line.HN_2P015_SW"                            0.00005,      0.0     3.00476E-005
"Line.MDV201_39755ELB"                        0.00000,      0.0     7.89504E-009
"Line.MDV201_DA_8_138_B6581"                  0.01053,     0.02     -0.00696859
"Line.MDV201_HN_2_156_B39758"                 1.03164,     0.18     0.525662
"Line.MDV201_HN_2_850_B52520"                 0.01388,     0.01     0.00577167
"Line.MDV201_1144240FUSE"                     0.00000,      0.0     -0.000372946
"Line.MDV201_HN_2_093_ABC63714"               0.75422,     0.04     1.14174
"Line.MDV201_HN_2_841_B94728"                 0.07917,     0.03     0.0750799
"Line.MDV201_DA_8_217_B56788"                 0.00090,     0.00     -0.0127195
"Line.MDV201_HN_1_283_A89823"                 0.00006,      0.0     -0.00698799
"Line.MDV201_HN_2_096_ABC39575"               0.08442,     0.02     0.0281691
"Line.MDV201_C_1_401_A21651"                  0.00898,     0.01     -0.00022674
"Line.MDV201_HN_2_401_B63632"                 0.00112,     0.00     -0.00397658
"Line.MDV201_HN_2_009_C28270"                 0.04422,     0.04     0.00938463
"Line.MDV201_HN_21016_C63717"                 0.00005,      0.0     -0.00769643
"Line.MDV201_HN_2_013_C28260"                 0.01336,     0.02     -0.00542222
"Line.MDV201_HN_21093_C1012641"               0.00000,      0.0     -0.00222813
"Line.MDV201_HN_2_012_C28259"                 0.00786,     0.01     -0.000625309
"Line.MDV201_HN_2_464_C62232"                 0.00626,     0.01     0.000647903
"Line.MDV201_HN_2_418_A835"                   0.01050,     0.01     -0.000148425
"Line.MDV201_HN_1_335_C28311"                 0.00020,      0.0     -0.0120911
"Line.MDV201_HN_2_981_B14997"                 0.00011,      0.0     -0.00620149
"Line.MDV201_1144251FUSE"                     0.00000,      0.0     -0.000349358
"Line.MDV201_C_1_402_A21650"                  0.00925,     0.01     -0.00162842
"Line.MDV201_DA_8_689_B46389"                 0.02583,     0.02     0.0104112
"Line.MDV201_HN_2_413_A838"                   0.00383,     0.01     -0.00353253
"Line.C_1P031_SW"                             0.00000,      0.0     -1.96538E-005
"Line.MDV201_8147ELB"                         0.00000,      0.0     4.44024E-010
"Line.MDV201_C_1_266_ABC8079"                 0.53934,     0.04     0.441595
"Line.MDV201_HN_2_857_B94741"                 0.00233,     0.01     -0.00519061
"Line.MDV201_C_1_162_A69459"                  0.00005,      0.0     -0.0102076
"Line.MDV201_1144250FUSE"                     0.00003,      0.0     0.00104164
"Line.MDV201_HN_2_847_B14853"                 0.01881,     0.01     0.0155897
"Line.MDV201_DA_8_507_ABC6580"                0.23991,     0.02     0.331316
"Line.MDV201_C_1_406_A8135"                   0.00096,     0.00     -0.00369552
"Line.MDV201_HN_2_476_C1144242"               0.00259,     0.00     -0.00258304
"Line.MDV201_HN_2_168_C14978"                 0.00104,     0.01     -0.0103347
"Line.MDV201_HN_2_897_B94726"                 0.00911,     0.01     -0.00242965
"Line.MDV201_DA_8_972_C74454"                 0.00005,      0.0     -0.0113162
"Line.MDV201_HN_2_317_C28271"                 0.00124,     0.00     -0.00969024
"Line.MDV201_HN_2_532_A8118"                  0.00009,      0.0     -0.00704362
"Line.MDV201_HN_2_301_B62297"                 0.77020,     0.13     0.393133
"Line.MDV201_DA_8_808_C46400"                 0.00002,      0.0     -0.00183495
"Line.MDV201_HN_2_642_A14894"                 0.00034,      0.0     -0.00659708
"Line.MDV201_HN_2_614_ABC28232"               0.13732,     0.01     0.270404
"Line.MDV201_DA_8_945_B56775"                 0.00016,      0.0     -0.00785839
"Line.C_1P027_SW"                             0.00001,      0.0     -1.53556E-005
"Line.MDV201_8109ELB"                         0.00000,      0.0     1.09902E-009
"Line.MDV201_DA_8_607_C46406"                 0.04420,     0.03     0.0168872
"Line.MDV201_C_1P027_A1160498"                0.00016,      0.0     -0.0563432
"Line.MDV201_HN_2_396_B63635"                 0.01444,     0.01     0.00286222
"Line.MDV201_HN_2_074_A8182"                  0.00009,      0.0     -0.0112522
"Line.MDV202_OSW_1010730"                     0.00000,      0.0     -0.00162784
"Line.MDV201_HN_2_144_ABC63664"               0.75767,     0.03     1.64283
"Line.MDV201_HN_2_866_C63673"                 0.00366,     0.01     -0.00415585
"Line.MDV201_C_1P025_A1160503"                0.00440,     0.01     -0.175525
"Line.MDV201_HN_2_091_ABC44583"               0.29136,     0.02     0.442037
"Line.MDV201_HN_2_853_B39587"                 0.00220,     0.00     -0.00702184
"Line.C_1P023_SW"                             0.00058,      0.0     0.000558831
"Line.MDV201_8145ELB"                         0.00000,      0.0     8.86074E-008
"Line.MDV201_HN_2_111_ABC69617"               0.05384,     0.02     0.01785
"Line.MDV201_HN_2_478_C8115"                  0.00027,      0.0     -0.00654957
"Line.MDV201_HN_2_395_ABC63657"               2.94858,     0.04     10.3287
"Line.MDV201_HN_2_805_B39624"                 0.01980,     0.01     0.0125759
"Line.MDV201_HN_2P011_B1160477"               0.02284,     0.02     -0.12505
"Line.C_1P025_SW"                             0.00006,      0.0     4.00788E-005
"Line.MDV201_8101ELB"                         0.00000,      0.0     9.54646E-009
"Line.MDV201_HN_2_657_C62231"                 0.04586,     0.01     0.0461431
"Line.MDV201_DA_8_140_ABC56751"               0.10991,     0.01     0.13164
"Line.MDV201_HN_1_266_A28307"                 0.00057,      0.0     -0.00933937
"Line.MDV201_HN_2_099_A39591"                 0.00016,      0.0     -0.0122979
"Line.MDV201_HN_1P002_C1160452"               0.00007,      0.0     -0.240912
"Line.C_1P030_SW"                             0.00003,      0.0     3.01841E-006
"Line.MDV201_8146ELB"                         0.00000,      0.0     3.90046E-009
"Line.MDV201_HN_2_725_A1144264"               0.00151,     0.00     -0.00697301
"Line.MDV201_DA_8_730_C74449"                 0.00056,      0.0     -0.00355147
"Line.MDV201_DA_8_905_A58413"                 0.00009,      0.0     -0.0102895
"Line.MDV201_DA_8_696_B46388"                 0.00159,     0.00     -0.0051707
"Line.MDV201_HN_1_182_C1012413"               0.00010,      0.0     -0.00702425
"Line.MDV201_HN_2_873_C63668"                 0.01195,     0.01     0.0052716
"Line.MDV201_1160495ELB-1_SW"                 0.00012,      0.0     9.69606E-005
"Line.MDV201_1160495ELB"                      0.00000,      0.0     1.82072E-008
"Line.MDV201_HN_2_620_C28227"                 0.01116,     0.01     0.00407695
"Line.MDV201_C_1_507_A8073"                   0.01779,     0.01     0.00794128
"Line.MDV201_C_1P023_A1160460"                0.02887,     0.02     -0.112792
"Line.MDV201_HN_2_860_B39603"                 0.00026,      0.0     -0.0073673
"Line.MDV201_HN_2_925_A28283"                 0.00002,      0.0     -0.00789325
"Line.MDV201_DA_8_783_ABC58417"               0.00039,      0.0     -0.0555993
"Line.MDV201_HN_2_236_ABC108763"              0.00000,      0.0     -0.0407431
"Line.MDV201_HN_2_345_ABC8081"                0.44171,     0.02     0.382285
"Line.MDV201_HN_2_646_A28230"                 0.00057,      0.0     -0.00832092
"Line.MDV201_102186FUSE"                      0.00000,      0.0     -0.00036705
"Line.MDV201_HN_2P015_B1160481"               0.00209,     0.00     -0.0970902
"Line.MDV201_HN_2_664_C62252"                 0.10924,     0.03     0.107347
"Line.MDV201_HN_2_075_A14842"                 0.00008,      0.0     -0.00826387
"Line.MDV201_HN_2_159_B6572"                  1.00765,     0.18     0.512794
"Line.MDV201_HN_2_654_A14881"                 0.00028,      0.0     -0.00435322
"Line.MDV201_HN_2_421_A808"                   0.01416,     0.01     0.004341
"Line.MDV201_DA_8_695_B46387"                 0.00429,     0.01     -0.00717863
"Line.MDV201_HN_2_625_C14882"                 0.00026,      0.0     -0.00471966
"Line.MDV201_C_1P031_1160490"                 0.00000,      0.0     6.93889E-021
"Line.MDV201_DA_7_490_A58425"                 0.00031,      0.0     -0.0154969
"Line.MDV201_HN_2_328_C14830"                 0.00801,     0.01     0.00222059
"Line.MDV201_HN_2_104_ABC39595"               0.33587,     0.04     0.23696
"Line.MDV201_HN_2_771_C14839"                 0.00001,      0.0     -0.00271801
"Line.MDV201_1144267FUSE"                     0.00000,      0.0     -0.000322019
"Line.MDV201_HN_2P008_B1160475"               0.03491,     0.02     -0.0766451
"Line.MDV201_DA_8_726_C39743"                 0.01023,     0.01     0.00401262
"Line.MDV201_C_1_712_A1000985"                0.00834,     0.01     -0.00330171
"Line.MDV201_HN_2_721_C14850"                 0.00018,      0.0     -0.00950771
"Line.MDV201_C_1P030_A1160499"                0.00098,     0.00     -0.0964708
"Line.MDV201_HN_2P053_C1163437"               0.00000,      0.0     -0.106685
"Line.MDV201_HN_21032_B62295"                 0.00006,      0.0     -0.00843941
"Line.MDV201_HN_2_432_B786"                   0.00097,     0.00     -0.00604224
"Line.MDV201_HN_2_652_A14877"                 0.00000,      0.0     -0.00837513
"Line.HN_2P007_SW"                            0.00131,     0.00     0.00128712
"Line.MDV201_6568ELB"                         0.00000,      0.0     1.9948E-007
"Line.MDV201_HN_2_951_C8188"                  0.00021,      0.0     -0.0044987
"Line.MDV201_DA_8_926_A74421"                 0.03773,     0.02     0.0289806
"Line.MDV201_HN_2_670_C89784"                 0.05582,     0.02     0.052709
"Line.HN_2P013_SW"                            0.00015,      0.0     0.000129244
"Line.MDV201_39756ELB"                        0.00000,      0.0     2.30133E-008
"Line.MDV201_HN_2_459_C62259"                 0.00022,      0.0     -0.00815947
"Line.MDV201_HN_2_660_C62246"                 0.00060,      0.0     -0.00584106
"Line.MDV201_HN_21053_B89778"                 0.00000,      0.0     -0.00135365
"Line.MDV201_HN_2_066_ABC14832"               0.42936,     0.06     0.633212
"Line.MDV201_HN_1_237_C89785"                 0.00017,      0.0     -0.0123073
"Line.MDV201_DA_8_675_A56750"                 0.01479,     0.01     0.00289985
"Line.MDV201_DA_8_801_ABC58430"               0.04335,     0.01     0.0312382
"Line.MDV201_C_1P036_A1160465"                0.01384,     0.01     -0.118142
"Line.MDV201_HN_1_169_A39570"                 0.00006,      0.0     -0.00152767
"Line.C_1P022_SW"                             0.00083,      0.0     0.0008081
"Line.MDV201_8144ELB"                         0.00000,      0.0     1.26597E-007
"Line.MDV201_HN_2_633_C28239"                 0.01180,     0.01     0.00116163
"Line.MDV201_99417FUSE"                       0.00000,      0.0     -0.000372058
"Line.MDV201_HN_2_386_B811"                   0.00028,      0.0     -0.00534772
"Line.MDV201_C_1_370_B69485"                  0.00132,     0.01     -0.00845487
"Line.MDV201_C_1_390_A8122"                   0.00367,     0.01     -0.00199139
"Line.MDV201_HN_2_216_C44581"                 0.00366,     0.01     -0.0115359
"Line.MDV201_102188FUSE"                      0.00000,      0.0     -0.000366336
"Line.MDV201_DA_8_494_A74434"                 0.00032,      0.0     -0.0148961
"Line.MDV201_HN_2_080_ABC39764"               0.07195,     0.01     0.101409
"Line.MDV201_HN_2_437_C14848"                 0.00864,     0.01     0.00164329
"Line.MDV201_HN_2_658_C62236"                 0.14614,     0.04     0.147039
"Line.MDV201_C_1_404_A8139"                   0.00688,     0.01     -0.00269448
"Line.MDV201_HN_2_957_B1103249"               0.00000,      0.0     -0.00467336
"Line.MDV201_HN_2_089_ABC8163"                0.49905,     0.03     0.773571
...